# 
#  this is the template for cif files
#  provided by user and accepted by Retcif module
#
_database_code_CSD YIGPIO03
_chemical_formula_sum 'H48 C37 S2 N6 O5'
_chemical_formula_moiety
;
H48 C37 S2 N6 O5
;
_symmetry_space_group_name_H-M 'P 21 21 21'
loop_
_symmetry_equiv_pos_site_id
_symmetry_equiv_pos_as_xyz
1 x,y,z
2 1/2-x,-y,1/2+z
3 -x,1/2+y,1/2-z
4 1/2+x,1/2-y,-z
_cell_length_a 9.54763
_cell_length_b 18.25769
_cell_length_c 19.70339 
_cell_angle_alpha 90
_cell_angle_beta 90
_cell_angle_gamma 90
_cell_formula_units_Z 4
loop_
_atom_site_label
_atom_site_type_symbol
_atom_site_fract_x
_atom_site_fract_y
_atom_site_fract_z
H1 H 0.202675 0.572756 0.987637
H5 H 0.350971 1.000213 1.118821
H9 H 0.590955 0.822149 1.022118
H13 H 0.661673 0.565633 0.943846
H17 H 0.63781 1.096295 0.777648
H21 H 0.647875 1.183608 0.738409
H25 H 0.56095 1.110339 0.695856
H29 H 0.378461 1.108051 0.786831
H33 H 0.419975 1.261853 0.72571
H37 H 0.259581 1.227329 0.759094
H41 H 0.335379 1.187015 0.685393
H45 H 0.538629 1.306659 0.98543
H49 H 0.676398 1.123198 1.011953
H53 H 0.598116 1.194324 1.060857
H57 H 0.352414 1.130429 1.132197
H61 H 0.260187 1.089291 1.062295
H65 H 0.32603 1.179914 1.054707
H69 H 0.597517 0.904315 1.101335
H73 H 0.341562 0.892172 1.192611
H77 H 0.643614 0.939157 1.225352
H81 H 0.508235 0.925262 1.286002
H85 H 0.494758 0.997596 1.225514
H89 H 0.614858 0.803513 1.185312
H93 H 0.444378 0.770686 1.164702
H97 H 0.486158 0.793591 1.249915
H101 H 0.313581 0.760233 0.982854
H105 H 0.591082 0.777114 0.906384
H109 H 0.450637 0.72486 0.874215
H113 H 0.532045 0.916816 0.935185
H117 H 0.41809 1.026738 0.888583
H121 H 0.231313 1.014064 0.799518
H125 H 0.168472 0.89087 0.756521
H129 H 0.276799 0.779861 0.807427
H133 H 0.586418 0.672091 0.989922
H137 H 0.462427 0.675067 1.057351
H141 H 0.380646 0.625627 0.914568
H145 H 0.375939 0.500556 0.963749
H149 H 0.597011 0.549718 1.06567
H153 H 0.41612 0.554315 1.085461
H157 H 0.716738 0.432024 1.072548
H161 H 0.711308 0.304439 1.115651
H165 H 0.483581 0.245352 1.144233
H169 H 0.260198 0.313042 1.123284
H173 H 0.265975 0.440637 1.080292
H177 H 0.531065 0.404967 0.779136
H181 H 0.47701 0.49132 0.749219
H185 H 0.212915 0.39983 0.869476
H189 H 0.015715 0.348092 0.684705
C1 C 0.580373 1.135431 0.745707
C5 C 0.441343 1.158028 0.779234
C9 C 0.358934 1.211652 0.734972
C13 C 0.471082 1.187923 0.848863
C17 C 0.521976 1.263362 0.948397
C21 C 0.530946 1.188905 0.957973
C25 C 0.577968 1.152358 1.022079
C29 C 0.347196 1.125687 1.076449
C33 C 0.521997 1.027942 1.056544
C37 C 0.484074 0.908526 1.110002
C41 C 0.455466 0.888234 1.184723
C45 C 0.529425 0.94088 1.233146
C49 C 0.502427 0.809352 1.196823
C53 C 0.405842 0.855044 1.063559
C57 C 0.428156 0.755787 0.979181
C61 C 0.475957 0.77239 0.906095
C65 C 0.409975 0.839946 0.876151
C69 C 0.44903 0.910351 0.89776
C73 C 0.384249 0.972699 0.871212
C77 C 0.280997 0.965758 0.82132
C81 C 0.24416 0.89632 0.797631
C85 C 0.306981 0.834094 0.825622
C89 C 0.474733 0.679027 1.00192
C93 C 0.389023 0.61747 0.970175
C97 C 0.455193 0.540424 0.979832
C101 C 0.494124 0.525419 1.054321
C105 C 0.492185 0.445792 1.074542
C109 C 0.616501 0.40596 1.083417
C113 C 0.613341 0.334171 1.108121
C117 C 0.485429 0.300721 1.123317
C121 C 0.360597 0.338833 1.112037
C125 C 0.363929 0.410765 1.087907
C129 C 0.576323 0.503049 0.872609
C133 C 0.449246 0.447075 0.784507
C137 C 0.307309 0.416898 0.770307
C141 C 0.204547 0.394715 0.814669
C145 C 0.096889 0.366958 0.719257
S1 S 0.477395 1.281638 0.866059
S5 S 0.251819 0.401819 0.688462
N1 N 0.501234 1.147178 0.901711
N5 N 0.478324 1.098715 1.048194
N9 N 0.441075 0.983071 1.095055
N13 N 0.485457 0.81073 1.025302
N17 N 0.577117 0.531371 0.935936
N21 N 0.085472 0.36625 0.785647
O1 O 0.635239 1.006391 1.02974
O5 O 0.274791 0.852762 1.064482
O9 O 0.252134 0.619628 1.000041
O13 O 0.680326 0.50127 0.834807
O17 O 0.449594 0.474963 0.853306
#END