# 
#  this is the template for cif files
#  provided by user and accepted by Retcif module
#
_database_code_CSD YIGPIO02
_chemical_formula_sum 'H48 C37 S2 N6 O5'
_chemical_formula_moiety
;
H48 C37 S2 N6 O5
;
_symmetry_space_group_name_H-M 'P 21'
loop_
_symmetry_equiv_pos_site_id
_symmetry_equiv_pos_as_xyz
1 x,y,z
2 -x,1/2+y,-z
_cell_length_a 13.10024
_cell_length_b 5.16055
_cell_length_c 25.73769 
_cell_angle_alpha 90
_cell_angle_beta 102.98103
_cell_angle_gamma 90
_cell_formula_units_Z 2
loop_
_atom_site_label
_atom_site_type_symbol
_atom_site_fract_x
_atom_site_fract_y
_atom_site_fract_z
H2 H 0.108801 0.844245 0.178398
H4 H 0.325177 0.254316 0.235051
H6 H 0.690613 0.619477 0.406705
H8 H 0.331547 0.697542 -0.062241
H10 H 0.444175 0.759988 -0.010429
H12 H 0.440204 0.483529 -0.052397
H14 H 0.20458 0.336957 -0.052069
H16 H 0.31156 0.118312 -0.048027
H18 H 0.237942 0.117814 0.00249
H20 H 0.409353 0.338531 0.03379
H22 H 0.245094 1.058346 0.134784
H24 H -0.000754 0.834517 0.041697
H26 H 0.046003 0.961082 0.106286
H28 H -0.080621 0.234459 0.080236
H30 H -0.091258 0.480916 0.030889
H32 H 0.018431 0.268156 0.042775
H34 H 0.170345 0.360021 0.239234
H36 H 0.169667 0.888655 0.291408
H38 H -0.004393 0.475849 0.269095
H40 H 0.001353 0.735665 0.314707
H42 H -0.014089 0.800623 0.245137
H44 H 0.17381 0.323265 0.329507
H46 H 0.282601 0.542186 0.342855
H48 H 0.172322 0.593128 0.371493
H50 H 0.479194 0.664189 0.225636
H52 H 0.431903 0.369948 0.148816
H54 H 0.453975 0.094257 0.191726
H56 H 0.589688 0.635457 0.136418
H58 H 0.779025 0.628631 0.136216
H60 H 0.893146 0.269431 0.18119
H62 H 0.814969 -0.083127 0.226179
H64 H 0.626258 -0.072368 0.226907
H66 H 0.551747 0.167073 0.28642
H68 H 0.497113 0.419922 0.318724
H70 H 0.672212 0.534038 0.262731
H72 H 0.729398 0.194061 0.335064
H74 H 0.821524 0.743782 0.349652
H76 H 0.842249 0.514891 0.301272
H78 H 0.940567 0.100959 0.331559
H80 H 1.094212 -0.079634 0.395806
H82 H 1.166099 0.148346 0.482019
H84 H 1.080562 0.554095 0.50338
H86 H 0.925401 0.729025 0.438946
H88 H 0.600795 -0.014424 0.493123
H90 H 0.73306 0.041236 0.527351
H92 H 0.487379 0.01778 0.565639
H94 H 0.601983 0.644861 0.666097
H96 H 0.573488 0.792528 0.336135
C2 C 0.393317 0.606451 -0.031705
C4 C 0.270154 0.240879 -0.024651
C6 C 0.345212 0.441733 0.006435
C8 C 0.291103 0.606646 0.040313
C10 C 0.16414 0.779495 0.073932
C12 C 0.246708 0.916929 0.103715
C14 C 0.053121 0.797314 0.080277
C16 C -0.036486 0.373632 0.061774
C18 C 0.0644 0.46984 0.151279
C20 C 0.178514 0.571946 0.237875
C22 C 0.143438 0.685054 0.286381
C24 C 0.02447 0.674809 0.278174
C26 C 0.196679 0.528414 0.335466
C28 C 0.292479 0.642584 0.238176
C30 C 0.465113 0.458523 0.232887
C32 C 0.48191 0.290991 0.185582
C34 C 0.594513 0.279252 0.181098
C36 C 0.638812 0.475776 0.155564
C38 C 0.745588 0.472869 0.155698
C40 C 0.809877 0.272781 0.181216
C42 C 0.766085 0.075239 0.206389
C44 C 0.659429 0.078473 0.206097
C46 C 0.536728 0.376503 0.286344
C48 C 0.639695 0.526829 0.298591
C50 C 0.725422 0.403073 0.342739
C52 C 0.830278 0.535884 0.342055
C54 C 0.922696 0.426822 0.38116
C56 C 0.971241 0.198865 0.369477
C58 C 1.058106 0.099021 0.40541
C60 C 1.098414 0.22656 0.453636
C62 C 1.050345 0.453404 0.465766
C64 C 0.962587 0.551116 0.429829
C66 C 0.699516 0.238581 0.429287
C68 C 0.656602 0.135535 0.512201
C70 C 0.617551 0.263724 0.555824
C72 C 0.538802 0.181396 0.57935
C74 C 0.595235 0.511175 0.632893
S2 S 0.360981 0.824994 0.087179
S4 S 0.676943 0.532178 0.589464
N2 N 0.190355 0.605266 0.038394
N4 N 0.017511 0.557628 0.101266
N6 N 0.114597 0.651087 0.186797
N8 N 0.354845 0.438277 0.235025
N10 N 0.698368 0.433477 0.394307
N12 N 0.526744 0.321318 0.62301
O2 O 0.06039 0.235401 0.164267
O4 O 0.321745 0.873744 0.239478
O6 O 0.621826 0.790102 0.311282
O8 O 0.722084 0.009199 0.424534
O10 O 0.667829 0.33201 0.473747
#END